Version 4.1
SHEET 1 900 736
WIRE -96 -416 -336 -416
WIRE 96 -416 -96 -416
WIRE 688 -416 96 -416
WIRE -96 -368 -96 -416
WIRE 96 -368 96 -416
WIRE 688 -256 688 -416
WIRE -96 -224 -96 -288
WIRE 96 -224 96 -288
WIRE 624 -208 416 -208
WIRE 0 -176 -32 -176
WIRE 32 -176 0 -176
WIRE 416 -128 416 -208
WIRE -96 -96 -96 -128
WIRE 0 -96 0 -176
WIRE 0 -96 -96 -96
WIRE 96 -80 96 -128
WIRE 240 -80 96 -80
WIRE 352 -80 240 -80
WIRE 416 0 416 -32
WIRE 688 0 688 -160
WIRE 688 0 416 0
WIRE -704 32 -704 0
WIRE 384 80 304 80
WIRE 512 80 464 80
WIRE 576 80 512 80
WIRE 688 80 688 0
WIRE 688 80 656 80
WIRE 688 96 688 80
WIRE 512 128 512 80
WIRE -704 160 -704 112
WIRE -576 160 -576 112
WIRE 240 192 240 -80
WIRE 464 192 240 192
WIRE 688 192 688 176
WIRE 688 192 560 192
WIRE -704 272 -704 240
WIRE -576 272 -576 240
WIRE -336 288 -336 -416
WIRE -96 288 -96 -96
WIRE 96 288 96 -80
WIRE 160 336 144 336
WIRE 224 336 160 336
WIRE 304 336 224 336
WIRE 464 336 384 336
WIRE 512 336 464 336
WIRE 688 336 688 192
WIRE 688 336 592 336
WIRE -96 432 -96 384
WIRE 0 432 -96 432
WIRE 96 432 96 384
WIRE 96 432 0 432
WIRE 224 432 224 400
WIRE -336 448 -336 368
WIRE -176 448 -336 448
WIRE 464 448 464 336
WIRE 688 448 688 336
WIRE -336 480 -336 448
WIRE 0 480 0 432
WIRE -176 528 -176 448
WIRE -176 528 -272 528
WIRE -64 528 -176 528
WIRE 224 528 224 512
WIRE 464 576 464 528
WIRE 688 576 688 528
WIRE -336 608 -336 576
WIRE 0 608 0 576
WIRE -336 704 -336 688
WIRE 0 704 0 688
FLAG 688 576 0
FLAG 464 576 0
FLAG -576 272 0
FLAG -160 336 Vref
FLAG -576 112 Vref
FLAG -704 272 0
FLAG -704 0 Vreg
FLAG -336 -416 Vreg
FLAG 688 336 Vo
FLAG 224 528 0
FLAG -336 704 0
FLAG 0 704 0
FLAG 304 80 0
SYMBOL pnp 624 -160 M180
SYMATTR InstName Q6
SYMATTR Value 2SAR542P
SYMBOL npn 352 -128 R0
SYMATTR InstName Q5
SYMATTR Value BC848B
SYMBOL npn -160 288 R0
WINDOW 3 23 57 Left 2
SYMATTR Value BC848B
SYMATTR InstName Q1
SYMBOL pnp 32 -128 M180
SYMATTR InstName Q4
SYMATTR Value BC858B
SYMBOL pnp -32 -128 R180
SYMATTR InstName Q3
SYMATTR Value BC858B
SYMBOL npn 160 288 M0
WINDOW 3 30 60 Left 2
SYMATTR Value BC848B
SYMATTR InstName Q2
SYMBOL res -112 -384 R0
SYMATTR InstName RE3
SYMATTR Value 0
SYMBOL res 80 -384 R0
SYMATTR InstName RE4
SYMATTR Value 0
SYMBOL npn -64 480 R0
WINDOW 3 23 57 Left 2
SYMATTR Value BC848B
SYMATTR InstName Q8
SYMBOL npn -272 480 M0
WINDOW 3 23 57 Left 2
SYMATTR Value BC848B
SYMATTR InstName Q7
SYMBOL res 608 320 R90
WINDOW 0 0 56 VBottom 2
WINDOW 3 32 56 VTop 2
SYMATTR InstName R1
SYMATTR Value 10k
SYMBOL res 480 544 R180
WINDOW 0 36 76 Left 2
WINDOW 3 36 40 Left 2
SYMATTR InstName R2
SYMATTR Value 10k
SYMBOL res 672 432 R0
SYMATTR InstName RL
SYMATTR Value {RL}
SYMBOL res -352 272 R0
SYMATTR InstName R3
SYMATTR Value 4k4
SYMBOL voltage -576 144 R0
WINDOW 123 0 0 Left 0
WINDOW 39 0 0 Left 0
SYMATTR InstName Vref
SYMATTR Value 2.5
SYMBOL voltage -704 144 R0
WINDOW 123 0 0 Left 0
WINDOW 39 0 0 Left 0
SYMATTR InstName Vreg
SYMATTR Value 9.5
SYMBOL voltage -704 16 R0
WINDOW 123 0 0 Left 0
WINDOW 39 0 0 Left 0
WINDOW 3 24 44 Left 2
SYMATTR InstName Vripple
SYMATTR Value 0
SYMBOL cap 208 336 R0
SYMATTR InstName C1
SYMATTR Value 1
SYMBOL voltage 224 416 R0
WINDOW 123 24 124 Left 2
WINDOW 39 0 0 Left 0
WINDOW 3 12 101 Left 2
SYMATTR Value2 AC 1
SYMATTR InstName V1
SYMATTR Value SINE(0 1m 1k)
SYMBOL ind 400 320 R90
WINDOW 0 5 56 VBottom 2
WINDOW 3 32 56 VTop 2
SYMATTR InstName L1
SYMATTR Value 1
SYMBOL res -352 592 R0
SYMATTR InstName RE7
SYMATTR Value 0
SYMBOL res -16 592 R0
SYMATTR InstName RE8
SYMATTR Value 0
SYMBOL res 672 80 R0
SYMATTR InstName R6
SYMATTR Value 3
SYMBOL npn 464 128 M90
SYMATTR InstName Q9
SYMATTR Value BC848B
SYMBOL res 672 64 R90
WINDOW 0 0 56 VBottom 2
WINDOW 3 32 56 VTop 2
SYMATTR InstName R7
SYMATTR Value 39k
SYMBOL res 480 64 R90
WINDOW 0 0 56 VBottom 2
WINDOW 3 32 56 VTop 2
SYMATTR InstName R8
SYMATTR Value 61k
TEXT -624 -200 Left 2 !.op
TEXT -632 -136 Left 2 !.step param RL 0.01 10 0.1
