Version 4
SHEET 1 1140 700
WIRE 144 -32 64 -32
WIRE 256 -32 224 -32
WIRE 640 -32 640 -64
WIRE -304 0 -304 -48
WIRE -80 0 -128 0
WIRE 64 0 64 -32
WIRE 64 0 0 0
WIRE -128 80 -208 80
WIRE -80 80 -128 80
WIRE 64 80 64 0
WIRE 64 80 0 80
WIRE -624 96 -624 64
WIRE 640 96 640 48
WIRE -304 112 -304 80
WIRE -272 112 -304 112
WIRE 64 128 64 80
WIRE 144 128 64 128
WIRE -272 144 -272 112
WIRE -256 144 -272 144
WIRE 256 144 256 -32
WIRE 256 144 208 144
WIRE 320 144 256 144
WIRE 448 144 400 144
WIRE 576 144 448 144
WIRE -80 160 -128 160
WIRE 64 160 0 160
WIRE 144 160 64 160
WIRE 64 192 64 160
WIRE 448 192 448 144
WIRE 176 208 176 176
WIRE -624 224 -624 176
WIRE -304 224 -304 176
WIRE -208 272 -208 80
WIRE 64 288 64 272
WIRE 640 288 640 192
WIRE 448 304 448 272
WIRE -208 384 -208 352
FLAG -624 224 0
FLAG -624 64 Vreg
FLAG 176 208 0
FLAG 176 112 Vreg
FLAG 448 304 0
FLAG 64 288 0
FLAG -304 224 0
FLAG -256 144 Vref
FLAG -128 0 Vref
FLAG -304 -48 Vreg
FLAG -208 384 0
FLAG 640 288 0
FLAG 640 -64 Vreg
SYMBOL OpAmps\\opamp2 176 80 R0
SYMATTR InstName U1
SYMATTR Value LM358
SYMBOL TL431 -288 176 R180
SYMATTR InstName U2
SYMBOL voltage -624 80 R0
WINDOW 123 0 0 Left 0
WINDOW 39 0 0 Left 0
SYMATTR InstName V1
SYMATTR Value 9.5
SYMBOL res 240 -48 R90
WINDOW 0 0 56 VBottom 2
WINDOW 3 32 56 VTop 2
SYMATTR InstName Rf
SYMATTR Value 10k
SYMBOL res 16 144 R90
WINDOW 0 0 56 VBottom 2
WINDOW 3 32 56 VTop 2
SYMATTR InstName Rx1
SYMATTR Value 3k9
SYMBOL res 80 288 R180
WINDOW 0 36 76 Left 2
WINDOW 3 36 40 Left 2
SYMATTR InstName Rx2
SYMATTR Value 10k
SYMBOL res -96 96 R270
WINDOW 0 32 56 VTop 2
WINDOW 3 0 56 VBottom 2
SYMATTR InstName Ro
SYMATTR Value 150
SYMBOL res -96 16 R270
WINDOW 0 32 56 VTop 2
WINDOW 3 0 56 VBottom 2
SYMATTR InstName Rref
SYMATTR Value 1k2
SYMBOL res 432 176 R0
SYMATTR InstName RLC2
SYMATTR Value 1k
SYMBOL res -320 -16 R0
SYMATTR InstName R8
SYMATTR Value 680
SYMBOL voltage -128 176 R180
WINDOW 0 24 96 Left 2
WINDOW 3 24 16 Left 2
WINDOW 123 0 0 Left 0
WINDOW 39 0 0 Left 0
SYMATTR InstName V2
SYMATTR Value 0
SYMBOL voltage -208 256 R0
WINDOW 123 0 0 Left 0
WINDOW 39 0 0 Left 0
SYMATTR InstName V3
SYMATTR Value 5
SYMBOL npn 576 96 R0
SYMATTR InstName Q1
SYMATTR Value BC547B
SYMBOL res 624 -48 R0
SYMATTR InstName R1
SYMATTR Value 1k
SYMBOL res 416 128 R90
WINDOW 0 0 56 VBottom 2
WINDOW 3 32 56 VTop 2
SYMATTR InstName RLC1
SYMATTR Value 3k9
TEXT -656 328 Left 2 !.dc V2 0 2
TEXT 96 -152 Left 2 !.inc lm358.lib
TEXT 144 376 Left 2 ;Nota: es muy complicado armarlo en la proto y probarlo a parte, neceistamos muchos\nresistores y como 3 fuentes. Conviene más soldarlo en la placa y probarlo con el lazo \nde corriente desconectado.\n \nNota 2: puede convenir reajustar los valores de los resistores del divisor resistivo del \nlazo de corriente (RLC1 y RLC2).\n \nCuando la tensión V2 es 1.5V (estarían circulando 1.5 A por RS), la salida del opamp \nes 1.4. Queremos bajarla a la mitad para alimentar al TBJ. RLC1 tiene que ser igual a\nRLC2 para bajarla a la mitad\n \nEn al simulación anda joya, pero la vida real es otra cosa como sabemos
