Version 4.1
SHEET 1 1000 680
WIRE 160 32 0 32
WIRE 432 32 256 32
WIRE 576 32 432 32
WIRE 784 32 656 32
WIRE 944 32 784 32
WIRE 0 96 0 32
WIRE 784 96 784 32
WIRE 944 96 944 32
WIRE 432 128 432 32
WIRE 0 240 0 176
WIRE 432 240 432 224
WIRE 432 240 0 240
WIRE 784 240 784 160
WIRE 784 240 432 240
WIRE 944 240 944 176
WIRE 944 240 784 240
FLAG 784 240 0
SYMBOL nmos 160 80 R270
SYMATTR InstName M1
SYMBOL nmos 384 128 R0
SYMATTR InstName M2
SYMBOL voltage 0 80 R0
SYMATTR InstName V1
SYMBOL ind 560 48 R270
WINDOW 0 32 56 VTop 2
WINDOW 3 5 56 VBottom 2
SYMATTR InstName L1
SYMBOL cap 768 96 R0
SYMATTR InstName C1
SYMBOL res 928 80 R0
SYMATTR InstName R1
