Version 4
SHEET 1 2200 680
WIRE 576 -960 480 -960
WIRE 720 -960 640 -960
WIRE 384 -832 352 -832
WIRE 256 -800 256 -832
WIRE 224 -768 80 -768
WIRE 544 -768 544 -800
WIRE 352 -752 352 -832
WIRE 352 -752 304 -752
WIRE 384 -752 352 -752
WIRE 480 -752 480 -960
WIRE 480 -752 464 -752
WIRE 528 -752 480 -752
WIRE 224 -736 160 -736
WIRE 720 -736 720 -960
WIRE 720 -736 592 -736
WIRE 768 -736 720 -736
WIRE 528 -720 480 -720
WIRE 256 -688 256 -704
WIRE 544 -656 544 -704
WIRE 160 -608 160 -736
WIRE 224 -608 160 -608
WIRE 352 -608 352 -752
WIRE 352 -608 304 -608
WIRE 160 -512 160 -608
WIRE 224 -512 160 -512
WIRE 720 -512 720 -736
WIRE 720 -512 304 -512
WIRE 80 -400 80 -768
WIRE 480 -400 480 -720
WIRE 480 -400 80 -400
WIRE -144 -304 -144 -352
WIRE -16 -304 -144 -304
WIRE -16 -288 -16 -304
WIRE -144 -240 -144 -304
WIRE 160 -240 160 -288
WIRE 80 -224 80 -400
WIRE 144 -224 80 -224
WIRE 480 -208 480 -400
WIRE 480 -208 208 -208
WIRE -16 -192 -16 -208
WIRE 144 -192 -16 -192
WIRE -16 -176 -16 -192
WIRE 160 -128 160 -176
WIRE -144 -32 -144 -160
WIRE -16 -32 -16 -96
FLAG -16 -32 0
FLAG -144 -32 0
FLAG 544 -656 0
FLAG 160 -128 0
FLAG 256 -688 0
FLAG -144 -352 VCC
IOPIN -144 -352 BiDir
FLAG 256 -832 VCC
IOPIN 256 -832 BiDir
FLAG 544 -800 VCC
IOPIN 544 -800 BiDir
FLAG 160 -288 VCC
IOPIN 160 -288 BiDir
FLAG 384 -832 Va
IOPIN 384 -832 Out
FLAG 768 -736 Vb
IOPIN 768 -736 Out
SYMBOL res 480 -768 R90
WINDOW 0 0 56 VBottom 2
WINDOW 3 32 56 VTop 2
SYMATTR InstName R5
SYMATTR Value 100k
SYMBOL res -32 -304 R0
SYMATTR InstName R1
SYMATTR Value 300k
SYMBOL res -32 -192 R0
SYMATTR InstName R2
SYMATTR Value 300k
SYMBOL voltage -144 -256 R0
SYMATTR InstName V1
SYMATTR Value 12
SYMBOL res 320 -624 R90
WINDOW 0 0 56 VBottom 2
WINDOW 3 32 56 VTop 2
SYMATTR InstName R3
SYMATTR Value 100k
SYMBOL res 320 -528 R90
WINDOW 0 0 56 VBottom 2
WINDOW 3 32 56 VTop 2
SYMATTR InstName R4
SYMATTR Value 47k
SYMBOL cap 640 -976 R90
WINDOW 0 0 32 VBottom 2
WINDOW 3 32 32 VTop 2
SYMATTR InstName C1
SYMATTR Value 10n
SYMBOL Comparators\\LTC6702 256 -752 R0
WINDOW 3 -136 -79 Left 2
SYMATTR InstName U1
SYMBOL OpAmps\\ADA4099-1 560 -736 R0
SYMATTR InstName U4
SYMBOL OpAmps\\ADA4099-1 176 -208 R0
SYMATTR InstName U5
TEXT -448 -40 Left 2 !.tran 25m startup
